%mem=1GB
%nproc=8
#HF/6-31G* nosymm SCF=Tight

Mol

0,1
C    -1.20905  -0.23651  -0.01918
C     0.08991   0.55293   0.04491
O     1.22200  -0.26249  -0.11001
H    -2.06738   0.42387   0.06207
H    -1.26769  -0.95774   0.79247
H    -1.27637  -0.77802  -0.95628
H     0.14555   1.11298   0.97665
H     0.13148   1.27043  -0.76403
H     1.27318  -0.87009   0.61476


