%mem=1GB
# opt ram1 
 
Mol 
 
0 1
C           1.08640        -0.00190        -0.05760
C           2.60090        -0.00220        -0.06320
O           3.08190         0.55160        -1.27930
H           0.70000        -0.41580         0.87790
H           0.69580        -0.59310        -0.89250
H           0.70100         1.01560        -0.18030
H           2.99360        -1.01840         0.03950
H           2.98680         0.60180         0.76310
H           2.74400         0.00100        -2.00600

