%mem=1GB
%nproc=12
#HF/6-31G* nosymm SCF=Tight opt=(Z-MATRIX,MaxCycle=200) 
 
Mol-Water Dimer

0,1 
C      -1.20905  -0.23651  -0.01918
C       0.08991   0.55293   0.04491
O99     1.22200  -0.26249  -0.11001
H      -2.06738   0.42387   0.06207
H      -1.26769  -0.95774   0.79247
H      -1.27637  -0.77802  -0.95628
H       0.14555   1.11298   0.97665
H       0.13148   1.27043  -0.76403
H99     1.27318  -0.87009   0.61476
X1      1.22200  -0.26249  -0.11001
X2      2.09253   0.12065   1.38748
X3      1.54336  -4.07762   4.44083
O1W  H99  roh X2 90.0 O99 180.0 
H1W  O1W     0.9474 H99    127.2302 X2 phi 
H2W  O1W     0.9474 H1W   105.5395 X3 0.0 

roh     1.9445
phi 182.145918
